test/data/matpower/epricase_aug2022_v22_fix.m
% Case saved by PowerWorld Simulator, version 23, build date October 31, 2023
function mpc = epricase_aug2022_v22_fix
mpc.version = '2';
mpc.baseMVA =  100.00;

%% bus data 
mpc.bus = [
1	3	0.00	0.00	0.00	0.00	1	1.0500000	-2.093334	22.00	1	1.100	0.900
2	1	0.00	0.00	0.00	0.00	1	1.0430240	-7.781387	345.00	1	1.100	0.900
3	1	600.00	200.00	0.00	0.00	1	1.0267881	-22.017938	345.00	1	1.100	0.900
4	1	900.00	400.00	0.00	500.00	1	1.0450912	-22.770354	500.00	1	1.100	0.900
5	1	1200.00	350.00	0.00	0.00	1	1.0432173	-21.765101	500.00	1	1.100	0.900
6	1	300.00	150.00	0.00	0.00	1	1.0500001	-16.965973	500.00	1	1.100	0.900
7	2	0.00	0.00	0.00	0.00	1	1.0416848	-11.769859	22.00	1	1.100	0.900
8	2	0.00	0.00	0.00	0.00	1	1.0416848	-11.769859	22.00	1	1.100	0.900
11	1	0.00	0.00	0.00	0.00	1	1.0577402	-14.901535	500.00	1	1.100	0.900
12	1	0.00	0.00	0.00	0.00	1	1.0541369	-6.495226	500.00	1	1.100	0.900
13	2	0.00	0.00	0.00	0.00	1	1.0500000	-2.609265	22.00	1	1.100	0.900
14	2	0.00	0.00	0.00	0.00	1	1.0500000	-2.609265	22.00	1	1.100	0.900
15	1	1200.00	510.00	0.00	0.00	1	1.0301845	-22.195961	500.00	1	1.100	0.900
16	1	500.00	200.00	0.00	200.00	1	1.0307132	-20.588813	345.00	1	1.100	0.900
17	1	0.00	0.00	0.00	0.00	1	1.0500000	-6.701160	345.00	1	1.100	0.900
18	2	0.00	0.00	0.00	0.00	1	1.0517086	-2.965105	22.00	1	1.100	0.900
19	2	0.00	0.00	0.00	0.00	1	1.0517086	-2.965105	22.00	1	1.100	0.900
20	1	0.00	0.00	0.00	0.00	1	1.0410052	-19.358232	345.00	1	1.100	0.900
21	1	0.00	0.00	0.00	0.00	1	1.0432305	-21.762124	500.00	1	1.100	0.900
];

%% generator data 
mpc.gen = [
1	776.30	81.52	400.00	-300.00	1.0500	1000.00	1	776.30	776.30	0.00	0.00	0.00	0.00	0.00	0.00	0	0	0	0	10.0000
7	900.00	-47.70	400.00	-350.00	1.0417	1100.00	1	900.00	900.00	0.00	0.00	0.00	0.00	0.00	0.00	0	0	0	0	10.0000
8	900.00	-47.70	400.00	-350.00	1.0417	1100.00	1	900.00	900.00	0.00	0.00	0.00	0.00	0.00	0.00	0	0	0	0	10.0000
13	500.00	-14.66	225.00	-200.00	1.0500	650.00	1	500.00	500.00	0.00	0.00	0.00	0.00	0.00	0.00	0	0	0	0	10.0000
14	500.00	-14.66	225.00	-200.00	1.0500	650.00	1	500.00	500.00	0.00	0.00	0.00	0.00	0.00	0.00	0	0	0	0	10.0000
18	600.00	26.13	400.00	-300.00	1.0517	900.00	1	600.00	600.00	0.00	0.00	0.00	0.00	0.00	0.00	0	0	0	0	10.0000
19	600.00	26.13	400.00	-300.00	1.0517	900.00	1	600.00	600.00	0.00	0.00	0.00	0.00	0.00	0.00	0	0	0	0	10.0000
];

%% generator cost data
mpc.gencost = [
2	0	0	4	0	0	1	0
2	0	0	4	0	0	1	0
2	0	0	4	0	0	1	0
2	0	0	4	0	0	1	0
2	0	0	4	0	0	1	0
2	0	0	4	0	0	1	0
2	0	0	4	0	0	1	0
];

%% branch data
mpc.branch = [
1	2	0.000168	0.014000	0.00000	1644.50	0.00	0.00	1.00000	0.000	1	0.00	0.00	776.30	81.52	-775.37	-4.15
2	3	0.002950	0.031500	0.53900	2120.00	0.00	0.00	0.00000	0.000	1	0.00	0.00	843.54	49.86	-824.07	100.25
17	2	0.002960	0.031000	0.54000	2120.00	0.00	0.00	0.00000	0.000	1	0.00	0.00	68.30	-12.03	-68.16	-45.71
3	4	0.000164	0.025000	0.00000	2000.00	0.00	0.00	1.00000	0.000	1	0.00	0.00	55.87	-75.17	-55.86	77.25
3	4	0.000160	0.025000	0.00000	2000.00	0.00	0.00	1.00000	0.000	1	0.00	0.00	55.89	-75.16	-55.87	77.24
3	4	0.000070	0.025000	0.00000	2000.00	0.00	0.00	1.00000	0.000	1	0.00	0.00	56.16	-74.96	-56.15	77.04
3	4	0.000070	0.025000	0.00000	2000.00	0.00	0.00	1.00000	0.000	1	0.00	0.00	56.16	-74.96	-56.15	77.04
4	5	0.000938	0.015450	1.65000	2000.00	0.00	0.00	0.00000	0.000	1	0.00	0.00	-122.52	-68.91	122.65	-108.80
4	5	0.000938	0.015450	0.00000	2000.00	0.00	0.00	0.00000	0.000	1	0.00	0.00	-122.52	21.20	122.65	-19.01
4	6	0.001866	0.030750	3.28000	2000.00	0.00	0.00	0.00000	0.000	1	0.00	0.00	-359.48	-155.70	361.70	-167.70
15	4	0.000794	0.013800	1.40000	2000.00	0.00	0.00	0.00000	0.000	1	0.00	0.00	71.59	-189.30	-71.46	40.94
5	6	0.001190	0.017800	2.46400	0.00	0.00	0.00	0.00000	0.000	1	0.00	0.00	-513.76	-117.91	516.65	-108.78
20	5	0.000067	0.025000	0.00000	2000.00	0.00	0.00	1.00000	0.000	1	0.00	0.00	182.41	-5.87	-182.39	13.55
20	5	0.000067	0.025000	0.00000	2000.00	0.00	0.00	1.00000	0.000	1	0.00	0.00	182.41	-5.87	-182.39	13.55
5	21	0.000000	0.000010	0.00000	2000.00	0.00	0.00	0.00000	0.000	1	0.00	0.00	-566.75	-131.38	566.75	131.41
6	7	0.000120	0.011000	0.00000	1200.00	0.00	0.00	1.00000	0.000	1	0.00	0.00	-899.10	130.04	900.00	-47.70
6	8	0.000120	0.011000	0.00000	1200.00	0.00	0.00	1.00000	0.000	1	0.00	0.00	-899.10	130.04	900.00	-47.70
6	11	0.000578	0.009610	1.01700	2000.00	0.00	0.00	0.00000	0.000	1	0.00	0.00	-419.44	-107.90	420.38	10.52
15	6	0.001170	0.019200	2.05000	2000.00	0.00	0.00	0.00000	0.000	1	0.00	0.00	-516.68	-160.16	519.65	-12.85
15	6	0.001170	0.019200	2.05000	2000.00	0.00	0.00	0.00000	0.000	1	0.00	0.00	-516.68	-160.16	519.65	-12.85
11	12	0.000930	0.016300	1.63000	1200.00	0.00	0.00	0.00000	0.000	1	0.00	0.00	-991.27	62.25	999.64	-97.41
21	11	0.001404	0.023250	2.47200	2000.00	0.00	0.00	0.00000	0.000	1	0.00	0.00	-566.75	-131.41	570.90	-72.77
12	13	0.000080	0.015000	0.00000	750.00	0.00	0.00	1.00000	0.000	1	0.00	0.00	-499.82	48.70	500.00	-14.66
12	14	0.000080	0.015000	0.00000	750.00	0.00	0.00	1.00000	0.000	1	0.00	0.00	-499.82	48.70	500.00	-14.66
16	15	0.000067	0.025000	0.00000	2000.00	0.00	0.00	1.00000	0.000	1	0.00	0.00	119.13	3.53	-119.12	-0.19
16	15	0.000067	0.025000	0.00000	2000.00	0.00	0.00	1.00000	0.000	1	0.00	0.00	119.13	3.53	-119.12	-0.19
16	17	0.003920	0.038200	0.71400	2120.00	0.00	0.00	0.00000	0.000	1	0.00	0.00	-669.79	61.58	686.71	26.00
16	20	0.003402	0.034800	0.62300	2120.00	0.00	0.00	0.00000	0.000	1	0.00	0.00	-68.47	-56.17	68.64	-8.97
18	17	0.000168	0.012000	0.00000	1644.50	0.00	0.00	1.00000	0.000	1	0.00	0.00	600.00	26.13	-599.45	13.00
19	17	0.000168	0.012000	0.00000	1644.50	0.00	0.00	1.00000	0.000	1	0.00	0.00	600.00	26.13	-599.45	13.00
17	20	0.005830	0.054200	1.06400	2120.00	0.00	0.00	0.00000	0.000	1	0.00	0.00	443.90	-39.97	-433.46	20.70
];

%% bus names
mpc.bus_name = {
'1';
'2';
'3';
'4';
'5';
'6';
'7';
'8';
'11';
'12';
'13';
'14';
'15';
'16';
'17';
'18';
'19';
'20';
'21';
};

%% Generator Unit Types
mpc.gentype = {
'UN';
'UN';
'UN';
'UN';
'UN';
'UN';
'UN';
};

%% Generator Fuel Types
mpc.genfuel = {
'unknown';
'unknown';
'unknown';
'unknown';
'unknown';
'unknown';
'unknown';
};

%% gmd_bus data
%column_names% parent_index status g_gnd name
mpc.gmd_bus = {
1	1	5.00000		'dc Substation 1'
2	1	5.00000		'dc Substation 2'
3	1	5.00000		'dc Substation 3'
4	1	1.00000		'dc Substation 4'
5	1	10.00000		'dc Substation 5'
6	1	10.00000		'dc Substation 6'
8	1	10.00000		'dc Substation 8'
1	1	0.00000		'dc 1'
2	1	0.00000		'dc 2'
3	1	0.00000		'dc 3'
4	1	0.00000		'dc 4'
5	1	0.00000		'dc 5'
6	1	0.00000		'dc 6'
7	1	0.00000		'dc 7'
8	1	0.00000		'dc 8'
11	1	0.00000		'dc 11'
12	1	0.00000		'dc 12'
13	1	0.00000		'dc 13'
14	1	0.00000		'dc 14'
15	1	0.00000		'dc 15'
16	1	0.00000		'dc 16'
17	1	0.00000		'dc 17'
18	1	0.00000		'dc 18'
19	1	0.00000		'dc 19'
20	1	0.00000		'dc 20'
21	1	0.00000		'dc 21'
};

%% gmd_branch data
%column_names% f_bus t_bus parent_index br_status br_r br_v len_km name
mpc.gmd_branch = {
9	10	2	1	1.17041		120.60042		120.81978		'dc 2'
22	9	3	1	1.17438		-93.15656		121.05543		'dc 3'
11	12	8	1	0.78167		131.69424		161.49473		'dc 8'
11	12	9	1	0.78167		131.69424		161.49473		'dc 9'
11	13	10	1	1.55500		321.26224		321.81894		'dc 10'
20	11	11	1	0.66167		-129.27560		136.93742		'dc 11'
12	13	12	1	0.99167		190.98651		205.02163		'dc 12'
12	26	15	1	0.00050		0.00000		0.00000		'dc 15'
13	6	16	1	0.05000		0.00000		0.00000		'dc 16_hi'
13	6	17	1	0.05000		0.00000		0.00000		'dc 17_hi'
13	16	18	1	0.48167		-20.13730		99.11112		'dc 18'
20	13	19	1	0.97500		191.10580		201.56421		'dc 19'
20	13	20	1	0.97500		191.10580		201.56421		'dc 20'
16	17	21	1	0.77500		160.17068		160.29369		'dc 21'
26	16	22	1	1.17000		169.82127		241.42167		'dc 22'
17	7	23	1	0.03333		0.00000		0.00000		'dc 23_hi'
17	7	24	1	0.03333		0.00000		0.00000		'dc 24_hi'
21	22	27	1	1.55526		-155.55753		160.47474		'dc 27'
21	25	28	1	1.34974		1.48501		138.64359		'dc 28'
22	25	31	1	2.31305		158.17519		238.16688		'dc 31'
9	1	1	1	0.03333		0.00000		0.00000		'dc 1_hi'
11	4	4	1	0.06667		0.00000		0.00000		'dc 4_hi'
10	4	4	1	0.03333		0.00000		0.00000		'dc 4_lo'
11	4	5	1	0.06667		0.00000		0.00000		'dc 5_hi'
10	4	5	1	0.03333		0.00000		0.00000		'dc 5_lo'
11	10	6	1	0.01333		0.00000		0.00000		'dc 6_series'
10	4	6	1	0.02000		0.00000		0.00000		'dc 6_common'
11	10	7	1	0.01333		0.00000		0.00000		'dc 7_series'
10	4	7	1	0.02000		0.00000		0.00000		'dc 7_common'
12	5	13	1	0.01333		0.00000		0.00000		'dc 13_hi'
25	5	13	1	0.02000		0.00000		0.00000		'dc 13_lo'
12	5	14	1	0.01333		0.00000		0.00000		'dc 14_hi'
25	5	14	1	0.02000		0.00000		0.00000		'dc 14_lo'
20	21	25	1	0.01333		0.00000		0.00000		'dc 25_series'
21	3	25	1	0.02000		0.00000		0.00000		'dc 25_common'
20	21	26	1	0.01333		0.00000		0.00000		'dc 26_series'
21	3	26	1	0.02000		0.00000		0.00000		'dc 26_common'
22	2	29	1	0.03333		0.00000		0.00000		'dc 29_hi'
22	2	30	1	0.03333		0.00000		0.00000		'dc 30_hi'
};

%% branch_gmd data
%column_names% hi_bus lo_bus gmd_br_hi gmd_br_lo gmd_k gmd_br_series gmd_br_common baseMVA type config
mpc.branch_gmd = {
2	1	21	-1	0.97980		-1		-1		100.0	'xfmr'	'gwye-delta'
2	3	-1	-1	-1.00000		-1		-1		100	'line'	'none'
17	2	-1	-1	-1.00000		-1		-1		100	'line'	'none'
4	3	22	23	1.79629		-1		-1		100.0	'xfmr'	'gwye-gwye'
4	3	24	25	1.79629		-1		-1		100.0	'xfmr'	'gwye-gwye'
4	3	-1	-1	1.79629		26		27		100.0	'xfmr'	'gwye-gwye-auto'
4	3	-1	-1	1.79629		28		29		100.0	'xfmr'	'gwye-gwye-auto'
4	5	-1	-1	-1.00000		-1		-1		100	'line'	'none'
4	5	-1	-1	-1.00000		-1		-1		100	'line'	'none'
4	6	-1	-1	-1.00000		-1		-1		100	'line'	'none'
15	4	-1	-1	-1.00000		-1		-1		100	'line'	'none'
5	6	-1	-1	-1.00000		-1		-1		100	'line'	'none'
5	20	30	31	1.79629		-1		-1		100.0	'xfmr'	'gwye-gwye'
5	20	32	33	1.79629		-1		-1		100.0	'xfmr'	'gwye-gwye'
5	21	-1	-1	-1.00000		-1		-1		100	'series_cap'	'none'
6	7	9	-1	1.79629		-1		-1		100.0	'xfmr'	'gwye-delta'
6	8	10	-1	1.79629		-1		-1		100.0	'xfmr'	'gwye-delta'
6	11	-1	-1	-1.00000		-1		-1		100	'line'	'none'
15	6	-1	-1	-1.00000		-1		-1		100	'line'	'none'
15	6	-1	-1	-1.00000		-1		-1		100	'line'	'none'
11	12	-1	-1	-1.00000		-1		-1		100	'line'	'none'
21	11	-1	-1	-1.00000		-1		-1		100	'line'	'none'
12	13	16	-1	1.79629		-1		-1		100.0	'xfmr'	'gwye-delta'
12	14	17	-1	1.79629		-1		-1		100.0	'xfmr'	'gwye-delta'
15	16	-1	-1	1.79629		34		35		100.0	'xfmr'	'gwye-gwye-auto'
15	16	-1	-1	1.79629		36		37		100.0	'xfmr'	'gwye-gwye-auto'
16	17	-1	-1	-1.00000		-1		-1		100	'line'	'none'
16	20	-1	-1	-1.00000		-1		-1		100	'line'	'none'
17	18	38	-1	0.97980		-1		-1		100.0	'xfmr'	'gwye-delta'
17	19	39	-1	0.97980		-1		-1		100.0	'xfmr'	'gwye-delta'
17	20	-1	-1	-1.00000		-1		-1		100	'line'	'none'
};

%% bus_gmd data
%column_names% lat lon
mpc.bus_gmd = {
33.61350		33.61350		
33.61350		33.61350		
33.54789		33.54789		
33.54789		33.54789		
32.70509		32.70509		
33.37730		33.37730		
33.37730		33.37730		
33.37730		33.37730		
34.25220		34.25220		
34.19560		34.19560		
34.19560		34.19560		
34.19560		34.19560		
33.95506		33.95506		
33.95506		33.95506		
34.31044		34.31044		
34.31044		34.31044		
34.31044		34.31044		
32.70509		32.70509		
32.70509		32.70509		
};

%% branch_thermal data
%column_names% xfmr temperature_ambient hotspot_instant_limit hotspot_avg_limit hotspot_rated topoil_time_const topoil_rated topoil_init topoil_initialized hotspot_coeff
mpc.branch_thermal = {
1	25	280	240	150	71	75	0	1	0.63
0	-1	-1	-1	-1	-1	-1	-1	-1	-1
0	-1	-1	-1	-1	-1	-1	-1	-1	-1
1	25	280	240	150	71	75	0	1	0.63
1	25	280	240	150	71	75	0	1	0.63
1	25	280	240	150	71	75	0	1	0.63
1	25	280	240	150	71	75	0	1	0.63
0	-1	-1	-1	-1	-1	-1	-1	-1	-1
0	-1	-1	-1	-1	-1	-1	-1	-1	-1
0	-1	-1	-1	-1	-1	-1	-1	-1	-1
0	-1	-1	-1	-1	-1	-1	-1	-1	-1
0	-1	-1	-1	-1	-1	-1	-1	-1	-1
1	25	280	240	150	71	75	0	1	0.63
1	25	280	240	150	71	75	0	1	0.63
0	-1	-1	-1	-1	-1	-1	-1	-1	-1
1	25	280	240	150	71	75	0	1	0.63
1	25	280	240	150	71	75	0	1	0.63
0	-1	-1	-1	-1	-1	-1	-1	-1	-1
0	-1	-1	-1	-1	-1	-1	-1	-1	-1
0	-1	-1	-1	-1	-1	-1	-1	-1	-1
0	-1	-1	-1	-1	-1	-1	-1	-1	-1
0	-1	-1	-1	-1	-1	-1	-1	-1	-1
1	25	280	240	150	71	75	0	1	0.63
1	25	280	240	150	71	75	0	1	0.63
1	25	280	240	150	71	75	0	1	0.63
1	25	280	240	150	71	75	0	1	0.63
0	-1	-1	-1	-1	-1	-1	-1	-1	-1
0	-1	-1	-1	-1	-1	-1	-1	-1	-1
1	25	280	240	150	71	75	0	1	0.63
1	25	280	240	150	71	75	0	1	0.63
0	-1	-1	-1	-1	-1	-1	-1	-1	-1
};
